<?xml version="1.0" encoding="UTF-8"?>
<!DOCTYPE network SYSTEM "http://www.matsim.org/files/dtd/network_v2.dtd">
<network>

<!-- ====================================================================== -->

	<nodes>
		<node id="NodeA" x="0.0" y="0.0" >
		</node>
		<node id="NodeB" x="1.0" y="0.0" >
		</node>
		<node id="NodeC" x="2.0" y="0.0" >
		</node>
		<node id="NodeD" x="3.0" y="1.0" >
		</node>
		<node id="NodeE" x="3.0" y="-1.0" >
		</node>
		<node id="NodeF" x="4.0" y="0.0" >
		</node>
		<node id="NodeG" x="5.0" y="0.0" >
		</node>
	</nodes>

<!-- ====================================================================== -->

	<links capperiod="01:00:00" effectivecellsize="7.5" effectivelanewidth="3.75">
		<link id="link1" from="NodeA" to="NodeB" length="1250.3750576" freespeed="12.0" capacity="3600.0" permlanes="2.0" oneway="1" modes="car" >
		</link>
		<link id="link2" from="NodeB" to="NodeC" length="1250.3750576" freespeed="12.0" capacity="3600.0" permlanes="2.0" oneway="1" modes="car" >
		</link>
		<link id="link3" from="NodeC" to="NodeD" length="6000.3750576" freespeed="12.0" capacity="1800.0" permlanes="1.0" oneway="1" modes="car" >
		</link>
		<link id="link4" from="NodeD" to="NodeF" length="13500.3750576" freespeed="12.0" capacity="1800.0" permlanes="1.0" oneway="1" modes="car" >
		</link>
		<link id="link5" from="NodeC" to="NodeE" length="13500.3750576" freespeed="12.0" capacity="1800.0" permlanes="1.0" oneway="1" modes="car" >
		</link>
		<link id="link6" from="NodeE" to="NodeF" length="6000.3750576" freespeed="12.0" capacity="1800.0" permlanes="1.0" oneway="1" modes="car" >
		</link>
		<link id="link7" from="NodeF" to="NodeG" length="1250.3750576" freespeed="12.0" capacity="3600.0" permlanes="2.0" oneway="1" modes="car" >
		</link>
		<link id="link8" from="NodeD" to="NodeE" length="6000.3750576" freespeed="12.0" capacity="1800.0" permlanes="1.0" oneway="1" modes="car" >
		</link>
	</links>

<!-- ====================================================================== -->

</network>
