<?xml version="1.0" encoding="UTF-8"?>
<!DOCTYPE network SYSTEM "http://www.matsim.org/files/dtd/network_v2.dtd">
<network>

<!-- ====================================================================== -->

	<nodes>
		<node id="airport" x="10000.0" y="0.0" >
		</node>
		<node id="airport2" x="10500.0" y="0.0" >
		</node>
		<node id="garching" x="5000.0" y="3000.0" >
		</node>
		<node id="muc" x="0.0" y="0.0" >
		</node>
		<node id="muc2" x="-500.0" y="0.0" >
		</node>
	</nodes>

<!-- ====================================================================== -->

	<links capperiod="01:00:00" effectivecellsize="7.5" effectivelanewidth="3.75">
		<link id="access_airport" from="airport" to="airport2" length="500.0" freespeed="33.333333333333336" capacity="1000.0" permlanes="1.0" oneway="1" modes="car" >
		</link>
		<link id="access_airport_return" from="airport2" to="airport" length="500.0" freespeed="33.333333333333336" capacity="1000.0" permlanes="1.0" oneway="1" modes="car" >
		</link>
		<link id="access_muc" from="muc2" to="muc" length="500.0" freespeed="33.333333333333336" capacity="1000.0" permlanes="1.0" oneway="1" modes="car" >
		</link>
		<link id="access_muc_return" from="muc" to="muc2" length="500.0" freespeed="33.333333333333336" capacity="2000.0" permlanes="2.0" oneway="1" modes="car" >
		</link>
		<link id="local" from="muc" to="airport" length="10000.0" freespeed="11.11111111111111" capacity="1000.0" permlanes="1.0" oneway="1" modes="car" >
		</link>
		<link id="motorway_1" from="muc" to="garching" length="7000.0" freespeed="33.333333333333336" capacity="2000.0" permlanes="2.0" oneway="1" modes="car" >
		</link>
		<link id="motorway_2" from="garching" to="airport" length="7000.0" freespeed="33.333333333333336" capacity="2000.0" permlanes="2.0" oneway="1" modes="car" >
		</link>
		<link id="return" from="airport" to="muc" length="7000.0" freespeed="33.333333333333336" capacity="2000.0" permlanes="2.0" oneway="1" modes="car" >
		</link>
	</links>

<!-- ====================================================================== -->

</network>
