<?xml version="1.0" encoding="UTF-8"?>
<!DOCTYPE network SYSTEM "http://www.matsim.org/files/dtd/network_v2.dtd">
<network>

<!-- ====================================================================== -->

	<nodes>
		<node id="NodeA" x="0.0" y="0.0" >
		</node>
		<node id="NodeB" x="1000.0" y="0.0" >
		</node>
		<node id="NodeC" x="2000.0" y="500.0" >
		</node>
		<node id="NodeD" x="2000.0" y="-500.0" >
		</node>
		<node id="NodeE" x="3000.0" y="0.0" >
		</node>
		<node id="NodeF" x="4000.0" y="0.0" >
		</node>
	</nodes>

<!-- ====================================================================== -->

	<links capperiod="01:00:00" effectivecellsize="7.5" effectivelanewidth="3.75">
		<link id="a_b" from="NodeA" to="NodeB" length="1000.0" freespeed="22.22" capacity="500.0" permlanes="1.0" oneway="1" modes="car,bus" >
			<attributes>
				<attribute name="hbefa_road_type" class="java.lang.String">URB/Local/50</attribute>
			</attributes>
		</link>
		<link id="b_a" from="NodeB" to="NodeA" length="1000.0" freespeed="22.22" capacity="500.0" permlanes="1.0" oneway="1" modes="car,bus" >
			<attributes>
				<attribute name="hbefa_road_type" class="java.lang.String">URB/Local/50</attribute>
			</attributes>
		</link>
		<link id="b_c" from="NodeB" to="NodeC" length="1118.033988749895" freespeed="13.88" capacity="250.0" permlanes="1.0" oneway="1" modes="car,bus" >
			<attributes>
				<attribute name="hbefa_road_type" class="java.lang.String">URB/Local/50</attribute>
			</attributes>
		</link>
		<link id="b_d" from="NodeB" to="NodeD" length="1118.033988749895" freespeed="13.88" capacity="250.0" permlanes="1.0" oneway="1" modes="car,bus" >
			<attributes>
				<attribute name="hbefa_road_type" class="java.lang.String">URB/Local/50</attribute>
			</attributes>
		</link>
		<link id="c_b" from="NodeC" to="NodeB" length="1118.033988749895" freespeed="13.88" capacity="250.0" permlanes="1.0" oneway="1" modes="car,bus" >
			<attributes>
				<attribute name="hbefa_road_type" class="java.lang.String">URB/Local/50</attribute>
			</attributes>
		</link>
		<link id="c_e" from="NodeC" to="NodeE" length="1118.033988749895" freespeed="13.88" capacity="250.0" permlanes="1.0" oneway="1" modes="car,bus" >
			<attributes>
				<attribute name="hbefa_road_type" class="java.lang.String">URB/Local/50</attribute>
			</attributes>
		</link>
		<link id="d_b" from="NodeD" to="NodeB" length="1118.033988749895" freespeed="13.88" capacity="250.0" permlanes="1.0" oneway="1" modes="car,bus" >
			<attributes>
				<attribute name="hbefa_road_type" class="java.lang.String">URB/Local/50</attribute>
			</attributes>
		</link>
		<link id="d_e" from="NodeD" to="NodeE" length="1118.033988749895" freespeed="13.88" capacity="250.0" permlanes="1.0" oneway="1" modes="car,bus" >
			<attributes>
				<attribute name="hbefa_road_type" class="java.lang.String">URB/Local/50</attribute>
			</attributes>
		</link>
		<link id="e_c" from="NodeE" to="NodeC" length="1118.033988749895" freespeed="13.88" capacity="250.0" permlanes="1.0" oneway="1" modes="car,bus" >
			<attributes>
				<attribute name="hbefa_road_type" class="java.lang.String">URB/Local/50</attribute>
			</attributes>
		</link>
		<link id="e_d" from="NodeE" to="NodeD" length="1118.033988749895" freespeed="13.88" capacity="250.0" permlanes="1.0" oneway="1" modes="car,bus" >
			<attributes>
				<attribute name="hbefa_road_type" class="java.lang.String">URB/Local/50</attribute>
			</attributes>
		</link>
		<link id="e_f" from="NodeE" to="NodeF" length="1000.0" freespeed="22.22" capacity="500.0" permlanes="1.0" oneway="1" modes="car,bus" >
			<attributes>
				<attribute name="hbefa_road_type" class="java.lang.String">URB/Local/50</attribute>
			</attributes>
		</link>
		<link id="f_e" from="NodeF" to="NodeE" length="1000.0" freespeed="22.22" capacity="500.0" permlanes="1.0" oneway="1" modes="car,bus" >
			<attributes>
				<attribute name="hbefa_road_type" class="java.lang.String">URB/Local/50</attribute>
			</attributes>
		</link>
	</links>

<!-- ====================================================================== -->

</network>
