<?xml version="1.0" encoding="UTF-8"?>
<!DOCTYPE network SYSTEM "http://www.matsim.org/files/dtd/network_v2.dtd">
<network>

<!-- ====================================================================== -->

	<nodes>
		<node id="NodeA" x="0.0" y="0.0" >
		</node>
		<node id="NodeB" x="1250.3750576" y="0.0" >
		</node>
		<node id="NodeC" x="2500.7501152000004" y="0.0" >
		</node>
		<node id="NodeD" x="6743.6560080915815" y="4242.90589289158" >
		</node>
		<node id="NodeE" x="16289.862759882268" y="0.0" >
		</node>
		<node id="NodeF" x="12046.956866990688" y="-9546.206751790687" >
		</node>
		<node id="NodeG" x="17540.237817482266" y="0.0" >
		</node>
	</nodes>

<!-- ====================================================================== -->

	<links capperiod="01:00:00" effectivecellsize="7.5" effectivelanewidth="3.75">
		<link id="link1" from="NodeA" to="NodeB" length="1250.3750576" freespeed="12.0" capacity="3600.0" permlanes="2.0" oneway="1" modes="car" >
		</link>
		<link id="link2" from="NodeB" to="NodeC" length="1250.3750576000004" freespeed="12.0" capacity="3600.0" permlanes="2.0" oneway="1" modes="car" >
		</link>
		<link id="link3" from="NodeC" to="NodeD" length="6000.3750576" freespeed="12.0" capacity="1800.0" permlanes="1.0" oneway="1" modes="car" >
		</link>
		<link id="link4" from="NodeD" to="NodeF" length="14773.781761205775" freespeed="12.0" capacity="1800.0" permlanes="1.0" oneway="1" modes="car" >
		</link>
		<link id="link5" from="NodeC" to="NodeE" length="13789.112644682267" freespeed="12.0" capacity="1800.0" permlanes="1.0" oneway="1" modes="car" >
		</link>
		<link id="link6" from="NodeE" to="NodeF" length="10446.641267118739" freespeed="12.0" capacity="1800.0" permlanes="1.0" oneway="1" modes="car" >
		</link>
		<link id="link7" from="NodeF" to="NodeG" length="11013.909339964977" freespeed="12.0" capacity="3600.0" permlanes="2.0" oneway="1" modes="car" >
		</link>
	</links>

<!-- ====================================================================== -->

</network>
